LIG(A-601)
  -OEChem-12162208503D

 53 57  0     1  0  0  0  0  0999 V2000
  -11.5630    2.0890  -24.5490 O   0  0  0  0  0  0  0  0  0  0  0  0
  -11.1340    1.0100  -24.1830 C   0  0  0  0  0  0  0  0  0  0  0  0
   -9.8400    0.6430  -24.3900 N   0  0  0  0  0  0  0  0  0  0  0  0
   -8.9920    1.4330  -25.2660 C   0  0  0  0  0  0  0  0  0  0  0  0
   -8.2990    2.6280  -24.6270 C   0  0  0  0  0  0  0  0  0  0  0  0
   -7.4800    3.2830  -25.2720 O   0  0  0  0  0  0  0  0  0  0  0  0
   -8.5880    2.9090  -23.3620 N   0  0  0  0  0  0  0  0  0  0  0  0
   -7.8530    3.9050  -22.6010 C   0  0  0  0  0  0  0  0  0  0  0  0
  -11.9830    0.0520  -23.4520 C   0  0  0  0  0  0  0  0  0  0  0  0
  -13.3590    0.2710  -23.4080 C   0  0  0  0  0  0  0  0  0  0  0  0
  -14.1810   -0.5910  -22.7090 C   0  0  0  0  0  0  0  0  0  0  0  0
  -13.6270   -1.6860  -22.0780 C   0  0  0  0  0  0  0  0  0  0  0  0
  -14.6590   -2.7520  -21.1720 Cl  0  0  0  0  0  0  0  0  0  0  0  0
  -12.2690   -1.9470  -22.1210 C   0  0  0  0  0  0  0  0  0  0  0  0
  -11.4310   -1.0570  -22.7900 C   0  0  0  0  0  0  0  0  0  0  0  0
   -9.9110   -1.1890  -22.7110 C   0  0  1  0  0  0  0  0  0  0  0  0
   -9.3550   -0.7020  -24.0750 C   0  0  0  0  0  0  0  0  0  0  0  0
   -9.3320   -0.3000  -21.6100 C   0  0  0  0  0  0  0  0  0  0  0  0
   -9.7480    0.7960  -21.2790 O   0  0  0  0  0  0  0  0  0  0  0  0
   -8.2610   -0.9410  -21.0670 N   0  0  0  0  0  0  0  0  0  0  0  0
   -8.0420   -2.2750  -21.6550 C   0  0  0  0  0  0  0  0  0  0  0  0
   -9.3840   -2.5920  -22.3140 C   0  0  0  0  0  0  0  0  0  0  0  0
   -7.4240   -0.4100  -20.0340 C   0  0  0  0  0  0  0  0  0  0  0  0
   -6.3250    0.4340  -20.3700 C   0  0  0  0  0  0  0  0  0  0  0  0
   -5.9360    0.7430  -21.7010 C   0  0  0  0  0  0  0  0  0  0  0  0
   -4.8790    1.5730  -21.9490 C   0  0  0  0  0  0  0  0  0  0  0  0
   -4.1610    2.1390  -20.9010 C   0  0  0  0  0  0  0  0  0  0  0  0
   -4.4960    1.8730  -19.6050 C   0  0  0  0  0  0  0  0  0  0  0  0
   -5.5770    1.0080  -19.3010 C   0  0  0  0  0  0  0  0  0  0  0  0
   -5.9670    0.6860  -17.9730 C   0  0  0  0  0  0  0  0  0  0  0  0
   -6.9900   -0.1030  -17.6650 N   0  0  0  0  0  0  0  0  0  0  0  0
   -7.6880   -0.6290  -18.6830 C   0  0  0  0  0  0  0  0  0  0  0  0
   -8.2133    0.7687  -25.6689 H   0  0  0  0  0  0  0  0  0  0  0  0
   -9.6166    1.8078  -26.0902 H   0  0  0  0  0  0  0  0  0  0  0  0
   -9.3374    2.4182  -22.9176 H   0  0  0  0  0  0  0  0  0  0  0  0
   -8.2655    3.9674  -21.5832 H   0  0  0  0  0  0  0  0  0  0  0  0
   -6.7924    3.6179  -22.5497 H   0  0  0  0  0  0  0  0  0  0  0  0
   -7.9444    4.8840  -23.0942 H   0  0  0  0  0  0  0  0  0  0  0  0
  -13.7845    1.1194  -23.9233 H   0  0  0  0  0  0  0  0  0  0  0  0
  -15.2445   -0.4103  -22.6569 H   0  0  0  0  0  0  0  0  0  0  0  0
  -11.8645   -2.8271  -21.6433 H   0  0  0  0  0  0  0  0  0  0  0  0
   -8.2560   -0.6867  -24.0306 H   0  0  0  0  0  0  0  0  0  0  0  0
   -9.6804   -1.3956  -24.8643 H   0  0  0  0  0  0  0  0  0  0  0  0
   -7.2332   -2.2495  -22.4001 H   0  0  0  0  0  0  0  0  0  0  0  0
   -7.8006   -3.0140  -20.8769 H   0  0  0  0  0  0  0  0  0  0  0  0
  -10.0661   -3.0859  -21.6064 H   0  0  0  0  0  0  0  0  0  0  0  0
   -9.2496   -3.2301  -23.1999 H   0  0  0  0  0  0  0  0  0  0  0  0
   -6.4833    0.3160  -22.5284 H   0  0  0  0  0  0  0  0  0  0  0  0
   -4.5985    1.7915  -22.9688 H   0  0  0  0  0  0  0  0  0  0  0  0
   -3.3304    2.7953  -21.1148 H   0  0  0  0  0  0  0  0  0  0  0  0
   -3.9319    2.3260  -18.8032 H   0  0  0  0  0  0  0  0  0  0  0  0
   -5.3944    1.1104  -17.1616 H   0  0  0  0  0  0  0  0  0  0  0  0
   -8.5195   -1.2725  -18.4363 H   0  0  0  0  0  0  0  0  0  0  0  0
  1  2  2  0  0  0  0
  2  3  1  0  0  0  0
  2  9  1  0  0  0  0
  3  4  1  0  0  0  0
  3 17  1  0  0  0  0
  4  5  1  0  0  0  0
  5  6  2  0  0  0  0
  5  7  1  0  0  0  0
  7  8  1  0  0  0  0
  9 10  2  0  0  0  0
  9 15  1  0  0  0  0
 10 11  1  0  0  0  0
 11 12  2  0  0  0  0
 12 13  1  0  0  0  0
 12 14  1  0  0  0  0
 14 15  2  0  0  0  0
 15 16  1  0  0  0  0
 16 17  1  0  0  0  0
 16 18  1  0  0  0  0
 16 22  1  0  0  0  0
 18 19  2  0  0  0  0
 18 20  1  0  0  0  0
 20 21  1  0  0  0  0
 20 23  1  0  0  0  0
 21 22  1  0  0  0  0
 23 24  2  0  0  0  0
 23 32  1  0  0  0  0
 24 25  1  0  0  0  0
 24 29  1  0  0  0  0
 25 26  2  0  0  0  0
 26 27  1  0  0  0  0
 27 28  2  0  0  0  0
 28 29  1  0  0  0  0
 29 30  2  0  0  0  0
 30 31  1  0  0  0  0
 31 32  2  0  0  0  0
  4 33  1  0  0  0  0
  4 34  1  0  0  0  0
  7 35  1  0  0  0  0
  8 36  1  0  0  0  0
  8 37  1  0  0  0  0
  8 38  1  0  0  0  0
 10 39  1  0  0  0  0
 11 40  1  0  0  0  0
 14 41  1  0  0  0  0
 17 42  1  0  0  0  0
 17 43  1  0  0  0  0
 21 44  1  0  0  0  0
 21 45  1  0  0  0  0
 22 46  1  0  0  0  0
 22 47  1  0  0  0  0
 25 48  1  0  0  0  0
 26 49  1  0  0  0  0
 27 50  1  0  0  0  0
 28 51  1  0  0  0  0
 30 52  1  0  0  0  0
 32 53  1  0  0  0  0
M  END
$$$$
